@<TRIPOS>MOLECULE
UNL
  174   213     1     0     0
SMALL
dc


@<TRIPOS>ATOM
      1 C           13.0040     0.1650     0.4970 ca         1 UNL       0.000000
      2 C1          12.1870    -0.9450     0.6870 ca         1 UNL       0.000000
      3 C2          10.7940    -0.8460     0.4920 ca         1 UNL       0.000000
      4 H           12.6190    -1.8990     0.9920 ha         1 UNL       0.000000
      5 C3          10.2770     0.3740     0.1020 ca         1 UNL       0.000000
      6 H1          10.1410    -1.7070     0.6480 ha         1 UNL       0.000000
      7 C4          11.1060     1.5140    -0.1170 ca         1 UNL       0.000000
      8 C5          12.4720     1.4100     0.0960 ca         1 UNL       0.000000
      9 H2          13.1500     2.2530    -0.0290 ha         1 UNL       0.000000
     10 H3          14.0810     0.0830     0.6600 ha         1 UNL       0.000000
     11 C6          10.2560     2.6570    -0.5600 cd         1 UNL       0.000000
     12 C7           8.8530     2.2160    -0.4350 cc         1 UNL       0.000000
     13 C8           8.8540     0.7590    -0.1250 c          1 UNL       0.000000
     14 O            7.8870     0.0230    -0.0540 o          1 UNL       0.000000
     15 C9          10.7130     3.8400    -1.0540 ce         1 UNL       0.000000
     16 C10         12.1000     4.1760    -1.1690 cg         1 UNL       0.000000
     17 C11          9.8740     4.8880    -1.5510 cg         1 UNL       0.000000
     18 N           13.2110     4.4800    -1.2770 n1         1 UNL       0.000000
     19 N1           9.2250     5.7510    -1.9660 n1         1 UNL       0.000000
     20 C12          7.7230     2.9660    -0.5190 cd         1 UNL       0.000000
     21 C13          6.3760     2.5220    -0.4060 cc         1 UNL       0.000000
     22 H4           7.8140     4.0560    -0.6780 ha         1 UNL       0.000000
     23 S            5.8950     0.8330    -0.1930 ss         1 UNL       0.000000
     24 C14          4.2310     1.2450    -0.1800 cc         1 UNL       0.000000
     25 C15          4.0630     2.6400    -0.3380 cd         1 UNL       0.000000
     26 C16          5.2640     3.3560    -0.4640 cd         1 UNL       0.000000
     27 H5           5.3110     4.4310    -0.5940 ha         1 UNL       0.000000
     28 C17          2.9940     0.5660    -0.0610 cc         1 UNL       0.000000
     29 S1           2.3790     3.0790    -0.3440 ss         1 UNL       0.000000
     30 C18          1.9070     1.4310    -0.1450 cd         1 UNL       0.000000
     31 C19          2.5180    -0.8800     0.0950 c3         1 UNL       0.000000
     32 C20          0.9800    -0.6770     0.0740 ca         1 UNL       0.000000
     33 C21          0.6540     0.7080    -0.0620 ca         1 UNL       0.000000
     34 C22          2.9680    -1.6990    -1.0680 cd         1 UNL       0.000000
     35 C23          2.9120    -1.4630     1.4100 cd         1 UNL       0.000000
     36 C24          3.6380    -1.7290     3.8250 cd         1 UNL       0.000000
     37 C25          4.2500    -3.2610    -2.5990 cd         1 UNL       0.000000
     38 C26          4.1200    -1.4630     5.1980 c3         1 UNL       0.000000
     39 C27          5.6580    -1.4490     5.2580 c3         1 UNL       0.000000
     40 H6           3.7180    -0.5000     5.5810 hc         1 UNL       0.000000
     41 H7           3.7250    -2.2360     5.8940 hc         1 UNL       0.000000
     42 C28          6.1570    -1.2210     6.6900 c3         1 UNL       0.000000
     43 H8           6.0520    -0.6600     4.5870 hc         1 UNL       0.000000
     44 H9           6.0550    -2.4040     4.8610 hc         1 UNL       0.000000
     45 C29          7.6910    -1.2040     6.7490 c3         1 UNL       0.000000
     46 H10          5.7560    -0.2670     7.0830 hc         1 UNL       0.000000
     47 H11          5.7640    -2.0120     7.3580 hc         1 UNL       0.000000
     48 C30          8.1960    -0.9770     8.1800 c3         1 UNL       0.000000
     49 H12          8.0860    -0.4140     6.0820 hc         1 UNL       0.000000
     50 H13          8.0950    -2.1570     6.3560 hc         1 UNL       0.000000
     51 C31          9.7220    -0.9590     8.2450 c3         1 UNL       0.000000
     52 H14          7.7940    -0.0220     8.5740 hc         1 UNL       0.000000
     53 H15          7.8030    -1.7680     8.8490 hc         1 UNL       0.000000
     54 H16         10.1420    -0.1600     7.6230 hc         1 UNL       0.000000
     55 H17         10.0720    -0.7950     9.2700 hc         1 UNL       0.000000
     56 H18         10.1520    -1.9050     7.8980 hc         1 UNL       0.000000
     57 C32          5.2250    -4.2340    -3.1380 c3         1 UNL       0.000000
     58 C33          4.7590    -5.6830    -2.9060 c3         1 UNL       0.000000
     59 H19          5.3720    -4.0580    -4.2270 hc         1 UNL       0.000000
     60 H20          6.2300    -4.0840    -2.6860 hc         1 UNL       0.000000
     61 C34          5.7440    -6.6890    -3.5130 c3         1 UNL       0.000000
     62 H21          4.6440    -5.8700    -1.8200 hc         1 UNL       0.000000
     63 H22          3.7510    -5.8240    -3.3430 hc         1 UNL       0.000000
     64 C35          5.2800    -8.1330    -3.2790 c3         1 UNL       0.000000
     65 H23          6.7510    -6.5430    -3.0760 hc         1 UNL       0.000000
     66 H24          5.8550    -6.5020    -4.5980 hc         1 UNL       0.000000
     67 C36          6.2620    -9.1450    -3.8870 c3         1 UNL       0.000000
     68 H25          5.1690    -8.3240    -2.1940 hc         1 UNL       0.000000
     69 H26          4.2720    -8.2810    -3.7140 hc         1 UNL       0.000000
     70 C37          5.8040   -10.5830    -3.6570 c3         1 UNL       0.000000
     71 H27          7.2700    -8.9990    -3.4510 hc         1 UNL       0.000000
     72 H28          6.3720    -8.9570    -4.9730 hc         1 UNL       0.000000
     73 H29          6.5100   -11.2980    -4.0940 hc         1 UNL       0.000000
     74 H30          5.7210   -10.8150    -2.5890 hc         1 UNL       0.000000
     75 H31          4.8240   -10.7720    -4.1100 hc         1 UNL       0.000000
     76 C38         -0.0070    -1.6490     0.1760 ca         1 UNL       0.000000
     77 C39         -1.3310    -1.2060     0.1330 ca         1 UNL       0.000000
     78 C40         -1.6590     0.1790    -0.0120 ca         1 UNL       0.000000
     79 C41         -0.6700     1.1510    -0.1030 ca         1 UNL       0.000000
     80 H32          0.2400    -2.7030     0.2850 ha         1 UNL       0.000000
     81 H33         -0.9130     2.2090    -0.1980 ha         1 UNL       0.000000
     82 C42         -2.5830    -1.9330     0.2200 cc         1 UNL       0.000000
     83 C43         -3.1950     0.3800    -0.0330 c3         1 UNL       0.000000
     84 C44         -3.6680    -1.0660     0.1380 cd         1 UNL       0.000000
     85 C45         -4.7460    -3.1380     0.3760 cc         1 UNL       0.000000
     86 C46         -4.9050    -1.7420     0.2250 cd         1 UNL       0.000000
     87 C47         -3.6100     1.2400     1.1130 cd         1 UNL       0.000000
     88 C48         -3.6540     0.9170    -1.3460 cd         1 UNL       0.000000
     89 C49         -3.7400     1.6290    -3.7800 cd         1 UNL       0.000000
     90 C50         -4.1910     3.2330     2.5720 cd         1 UNL       0.000000
     91 C51         -4.4770     4.6020     3.0540 c3         1 UNL       0.000000
     92 C52         -5.9560     4.9730     2.8430 c3         1 UNL       0.000000
     93 H34         -4.2210     4.6830     4.1340 hc         1 UNL       0.000000
     94 H35         -3.8250     5.3460     2.5490 hc         1 UNL       0.000000
     95 C53         -6.2620     6.3720     3.3910 c3         1 UNL       0.000000
     96 H36         -6.6020     4.2200     3.3350 hc         1 UNL       0.000000
     97 H37         -6.2050     4.9240     1.7650 hc         1 UNL       0.000000
     98 C54         -7.7360     6.7430     3.1790 c3         1 UNL       0.000000
     99 H38         -6.0150     6.4190     4.4700 hc         1 UNL       0.000000
    100 H39         -5.6120     7.1210     2.9000 hc         1 UNL       0.000000
    101 C55         -8.0470     8.1430     3.7260 c3         1 UNL       0.000000
    102 H40         -8.3890     5.9960     3.6690 hc         1 UNL       0.000000
    103 H41         -7.9850     6.6990     2.1010 hc         1 UNL       0.000000
    104 C56         -9.5130     8.5190     3.5170 c3         1 UNL       0.000000
    105 H42         -7.8000     8.1890     4.8050 hc         1 UNL       0.000000
    106 H43         -7.3960     8.8930     3.2350 hc         1 UNL       0.000000
    107 H44        -10.1850     7.8180     4.0240 hc         1 UNL       0.000000
    108 H45         -9.7250     9.5190     3.9100 hc         1 UNL       0.000000
    109 H46         -9.7810     8.5210     2.4540 hc         1 UNL       0.000000
    110 C57         -3.3780     1.9350    -5.1810 c3         1 UNL       0.000000
    111 H47         -2.6740     1.1760    -5.5850 hc         1 UNL       0.000000
    112 C58         -7.0610    -3.0060     0.3920 cd         1 UNL       0.000000
    113 C59         -8.4150    -3.4430     0.4430 cc         1 UNL       0.000000
    114 C60         -9.5350    -2.6740     0.4050 cd         1 UNL       0.000000
    115 H48         -8.5190    -4.5380     0.5390 ha         1 UNL       0.000000
    116 C61         -9.5130    -1.1850     0.3730 c          1 UNL       0.000000
    117 C62        -10.9210    -0.7340     0.5620 ca         1 UNL       0.000000
    118 C63        -11.7670    -1.8790     0.6460 ca         1 UNL       0.000000
    119 C64        -10.9450    -3.1080     0.4450 cc         1 UNL       0.000000
    120 O1          -8.5380    -0.4670     0.2360 o          1 UNL       0.000000
    121 C65        -11.4320    -4.3660     0.2580 ce         1 UNL       0.000000
    122 C66        -10.6230    -5.5150    -0.0150 cg         1 UNL       0.000000
    123 C67        -12.8250    -4.6950     0.2820 cg         1 UNL       0.000000
    124 N2         -10.0000    -6.4620    -0.2440 n1         1 UNL       0.000000
    125 N3         -13.9420    -4.9980     0.2930 n1         1 UNL       0.000000
    126 C68        -13.1220    -1.7060     0.8840 ca         1 UNL       0.000000
    127 C69        -13.6270    -0.3940     1.0080 ca         1 UNL       0.000000
    128 C70        -12.7940     0.7170     0.9030 ca         1 UNL       0.000000
    129 C71        -11.4120     0.5520     0.6800 ca         1 UNL       0.000000
    130 C72         -3.8620     0.9110     2.4090 cc         1 UNL       0.000000
    131 C73         -4.1960     2.0460     3.2400 cc         1 UNL       0.000000
    132 S2          -3.7830     2.9670     0.8850 ss         1 UNL       0.000000
    133 S3          -2.5270     0.9880    -2.6840 ss         1 UNL       0.000000
    134 C74         -4.9270     1.7650    -3.1270 cc         1 UNL       0.000000
    135 C75         -4.8800     1.3560    -1.7410 cc         1 UNL       0.000000
    136 C76          2.8680    -2.7510     1.8530 cc         1 UNL       0.000000
    137 C77          3.2890    -2.9020     3.2270 cc         1 UNL       0.000000
    138 S4           3.4580    -0.4040     2.6890 ss         1 UNL       0.000000
    139 S5           4.3560    -2.7540    -0.9230 ss         1 UNL       0.000000
    140 C78          2.4720    -1.7490    -2.3360 cc         1 UNL       0.000000
    141 C79          3.2010    -2.6410    -3.2070 cc         1 UNL       0.000000
    142 H49         -3.8240    -0.0940     2.8120 ha         1 UNL       0.000000
    143 H50          3.3110    -3.8710     3.7060 ha         1 UNL       0.000000
    144 H51          2.5550    -3.6040     1.2650 ha         1 UNL       0.000000
    145 H52         -5.7580     1.4090    -1.1070 ha         1 UNL       0.000000
    146 H53         -5.8390     2.1390    -3.5710 ha         1 UNL       0.000000
    147 H54          2.9140    -2.7780    -4.2400 ha         1 UNL       0.000000
    148 H55          1.6160    -1.1850    -2.6870 ha         1 UNL       0.000000
    149 H56         -4.4200     1.9270     4.2900 ha         1 UNL       0.000000
    150 H57        -10.7470     1.4140     0.6070 ha         1 UNL       0.000000
    151 H58        -13.2060     1.7220     0.9970 ha         1 UNL       0.000000
    152 H59        -14.6950    -0.2580     1.1910 ha         1 UNL       0.000000
    153 H60        -13.8110    -2.5430     0.9850 ha         1 UNL       0.000000
    154 C80         -5.9560    -3.8470     0.4670 cc         1 UNL       0.000000
    155 H61         -6.0130    -4.9240     0.5800 ha         1 UNL       0.000000
    156 S6          -6.5660    -1.3170     0.2040 ss         1 UNL       0.000000
    157 S7          -3.0630    -3.5810     0.4020 ss         1 UNL       0.000000
    158 C81         -2.7610     3.3400    -5.3070 c3         1 UNL       0.000000
    159 H62         -3.4570     4.0910    -4.8850 hc         1 UNL       0.000000
    160 C82         -1.4970     5.4200    -8.3530 c3         1 UNL       0.000000
    161 H63         -2.4180     5.3650    -8.9650 hc         1 UNL       0.000000
    162 H64         -0.8070     4.6630    -8.7750 hc         1 UNL       0.000000
    163 C83         -0.8760     6.8100    -8.4810 c3         1 UNL       0.000000
    164 H65         -0.6500     7.0470    -9.5270 hc         1 UNL       0.000000
    165 H66         -1.5490     7.5890    -8.1060 hc         1 UNL       0.000000
    166 H67          0.0600     6.8870    -7.9170 hc         1 UNL       0.000000
    167 C84         -1.8190     5.0760    -6.8920 c3         1 UNL       0.000000
    168 H68         -2.5060     5.8340    -6.4700 hc         1 UNL       0.000000
    169 H69         -0.8970     5.1350    -6.2810 hc         1 UNL       0.000000
    170 H70         -4.2810     1.8630    -5.8290 hc         1 UNL       0.000000
    171 H71         -1.8420     3.4030    -4.6910 hc         1 UNL       0.000000
    172 C85         -2.4400     3.6780    -6.7680 c3         1 UNL       0.000000
    173 H72         -3.3600     3.6200    -7.3810 hc         1 UNL       0.000000
    174 H73         -1.7490     2.9220    -7.1880 hc         1 UNL       0.000000
@<TRIPOS>BOND
     1     1     2 ar
     2     1     8 ar
     3     1    10 1
     4     2     3 ar
     5     2     4 1
     6     3     5 ar
     7     3     6 1
     8     5     7 ar
     9     5    13 1
    10     7     8 ar
    11     7    11 1
    12     8     9 1
    13    11    12 1
    14    11    15 1
    15    11    15 1
    16    12    13 1
    17    12    20 1
    18    12    20 1
    19    13    14 1
    20    13    14 1
    21    15    16 1
    22    15    17 1
    23    16    18 1
    24    16    18 1
    25    16    18 1
    26    17    19 1
    27    17    19 1
    28    17    19 1
    29    20    21 1
    30    20    22 1
    31    21    23 1
    32    21    26 2
    33    23    24 1
    34    24    25 2
    35    24    28 1
    36    25    26 1
    37    25    29 1
    38    26    27 1
    39    28    30 2
    40    28    31 1
    41    29    30 1
    42    30    33 1
    43    31    32 1
    44    31    34 1
    45    31    35 1
    46    32    33 1
    47    32    33 1
    48    32    76 1
    49    33    79 1
    50    34   139 1
    51    34   140 1
    52    34   140 1
    53    35   136 1
    54    35   136 1
    55    35   138 1
    56    36    38 1
    57    36   137 1
    58    36   137 1
    59    36   138 1
    60    37    57 1
    61    37   139 1
    62    37   141 1
    63    37   141 1
    64    38    39 1
    65    38    40 1
    66    38    41 1
    67    39    42 1
    68    39    43 1
    69    39    44 1
    70    42    45 1
    71    42    46 1
    72    42    47 1
    73    45    48 1
    74    45    49 1
    75    45    50 1
    76    48    51 1
    77    48    52 1
    78    48    53 1
    79    51    54 1
    80    51    55 1
    81    51    56 1
    82    57    58 1
    83    57    59 1
    84    57    60 1
    85    58    61 1
    86    58    62 1
    87    58    63 1
    88    61    64 1
    89    61    65 1
    90    61    66 1
    91    64    67 1
    92    64    68 1
    93    64    69 1
    94    67    70 1
    95    67    71 1
    96    67    72 1
    97    70    73 1
    98    70    74 1
    99    70    75 1
   100    76    77 1
   101    76    77 1
   102    76    80 1
   103    77    78 1
   104    77    82 1
   105    78    79 1
   106    78    79 1
   107    78    83 1
   108    79    81 1
   109    82    84 2
   110    82   157 1
   111    83    84 1
   112    83    87 1
   113    83    88 1
   114    84    86 1
   115    85    86 2
   116    85   154 1
   117    85   157 1
   118    86   156 1
   119    87   130 1
   120    87   130 1
   121    87   132 1
   122    88   133 1
   123    88   135 1
   124    88   135 1
   125    89   110 1
   126    89   133 1
   127    89   134 1
   128    89   134 1
   129    90    91 1
   130    90   131 1
   131    90   131 1
   132    90   132 1
   133    91    92 1
   134    91    93 1
   135    91    94 1
   136    92    95 1
   137    92    96 1
   138    92    97 1
   139    95    98 1
   140    95    99 1
   141    95   100 1
   142    98   101 1
   143    98   102 1
   144    98   103 1
   145   101   104 1
   146   101   105 1
   147   101   106 1
   148   104   107 1
   149   104   108 1
   150   104   109 1
   151   110   111 1
   152   110   158 1
   153   110   170 1
   154   112   113 1
   155   112   154 2
   156   112   156 1
   157   113   114 1
   158   113   114 1
   159   113   115 1
   160   114   116 1
   161   114   119 1
   162   116   117 1
   163   116   120 1
   164   116   120 1
   165   117   118 ar
   166   117   129 ar
   167   118   119 1
   168   118   126 ar
   169   119   121 1
   170   119   121 1
   171   121   122 1
   172   121   123 1
   173   122   124 1
   174   122   124 1
   175   122   124 1
   176   123   125 1
   177   123   125 1
   178   123   125 1
   179   126   127 ar
   180   126   153 1
   181   127   128 ar
   182   127   152 1
   183   128   129 ar
   184   128   151 1
   185   129   150 1
   186   130   131 1
   187   130   142 1
   188   131   149 1
   189   134   135 1
   190   134   146 1
   191   135   145 1
   192   136   137 1
   193   136   144 1
   194   137   143 1
   195   140   141 1
   196   140   148 1
   197   141   147 1
   198   154   155 1
   199   158   159 1
   200   158   171 1
   201   158   172 1
   202   160   161 1
   203   160   162 1
   204   160   163 1
   205   160   167 1
   206   163   164 1
   207   163   165 1
   208   163   166 1
   209   167   168 1
   210   167   169 1
   211   167   172 1
   212   172   173 1
   213   172   174 1
@<TRIPOS>SUBSTRUCTURE
     1 UNL         1 TEMP              0 ****  ****    0 ROOT
